Version 4
SHEET 1 880 680
WIRE 112 32 -48 32
WIRE -48 80 -48 32
WIRE 112 80 112 32
WIRE -48 192 -48 160
WIRE 112 192 112 144
WIRE 112 192 -48 192
WIRE -48 224 -48 192
FLAG -48 224 0
SYMBOL diode 96 80 R0
SYMATTR InstName D1
SYMATTR Value 1N914
SYMBOL voltage -48 64 R0
WINDOW 123 0 0 Left 0
WINDOW 39 0 0 Left 0
SYMATTR InstName V1
SYMATTR Value 1
TEXT -56 -8 Left 2 !.dc V1 -5 5 0.05
